6

Pt       1.96158000       3.92316000       1.96158000        0
Pt       3.92316000       1.96158000       1.96158000        0
Pt       3.92316000       3.92316000       0.00000000        0
Pt       3.92316000       5.88474000       1.96158000        0
Pt       5.88474000       3.92316000       1.96158000        0
Pt       3.92316000       3.92316000       3.92316000        0
